*****************************************************************
* SPICE MODEL OF THE PNP BIPOLAR TRANSISTOR BC327  *
*****************************************************************

.MODEL BC327_40 PNP (IS=10.0029F BF=482.999 NF=994.875M VAF=100 IKF=1.02836
+ ISE=1.854411E-020 NE=1.14573 BR=100.389M IKR=1 ISC=1.14895P RE=360.928M
+ RC=743.745M CJE=2P MJE=500M CJC=50.3851P VJC=700M MJC=558.066M TF=500.996P
+ XTF=499.989M VTF=10 ITF=10.0723M TR=10N )