****************************************************************
* SPICE MODEL OF THE NPN BIPOLAR TRANSISTOR BC546B*
*****************************************************************
.MODEL QBC546B NPN( 
+     IS=2.39E-14
+     NF=1.008
+     ISE=3.545E-15
+     NE=1.541
+     BF=294.3
+     IKF=0.1357
+     VAF=63.2
+     NR=1.004
+     ISC=6.272E-14
+     NC=1.243
+     BR=7.946
+     IKR=0.1144
+     VAR=25.9
+     RB=1
+     IRB=1E-06
+     RBM=1
+     RE=0.4683
+     RC=0.85
+     XTB=0