****************************************************************
* SPICE MODEL OF THE PNP BIPOLAR TRANSISTOR BC556B  *
*****************************************************************
*
.MODEL QBC557B PNP( 
+     IS=3.834E-14
+     NF=1.008
+     ISE=1.219E-14
+     NE=1.528
+     BF=344.4
+     IKF=0.08039
+     VAF=21.11
+     NR=1.005
+     ISC=2.852E-13
+     NC=1.28
+     BR=14.84
+     IKR=0.047
+     VAR=32.02
+     RB=1
+     IRB=1E-06
+     RBM=1
+     RE=0.6202
+     RC=0.5713
+     XTB=0